*SPEF "ieee 1481-1999"
*DESIGN "magic1000_core_orfs"
*DATE "15:07:08 Saturday July 04, 2026"
*VENDOR "The OpenROAD Project"
*PROGRAM "OpenROAD"
*VERSION "26Q2-1619-g9e1904a6f8"
*DESIGN_FLOW "NAME_SCOPE LOCAL" "PIN_CAP NONE"
*DIVIDER /
*DELIMITER :
*BUS_DELIMITER []
*T_UNIT 1 NS
*C_UNIT 1 PF
*R_UNIT 1 OHM
*L_UNIT 1 HENRY

*NAME_MAP
*1 _000_
*2 _001_
*3 _002_
*4 _003_
*5 _004_
*6 _005_
*7 _006_
*8 _007_
*9 _008_
*10 _009_
*11 _010_
*12 _011_
*13 _012_
*14 _013_
*15 _014_
*16 _015_
*17 _016_
*18 _017_
*19 _018_
*20 _019_
*21 _020_
*22 _021_
*23 _022_
*24 _023_
*25 _024_
*26 _025_
*27 _026_
*28 _027_
*29 _028_
*30 _029_
*31 _030_
*32 _031_
*33 _032_
*34 _033_
*35 _034_
*36 _035_
*37 _036_
*38 _037_
*39 _038_
*40 _039_
*41 _040_
*42 _041_
*43 _042_
*44 _043_
*45 _044_
*46 _045_
*47 _046_
*48 _047_
*49 _048_
*50 _049_
*51 _050_
*52 _051_
*53 _052_
*54 _053_
*55 _054_
*56 _055_
*57 _056_
*58 _057_
*59 _058_
*60 _059_
*61 _060_
*62 _061_
*63 _062_
*64 _063_
*65 _064_
*66 _065_
*67 _066_
*68 _067_
*69 _068_
*70 _069_
*71 _070_
*72 _071_
*73 _072_
*74 _073_
*75 _074_
*76 _075_
*77 _076_
*78 _077_
*79 _078_
*80 _079_
*81 _080_
*82 _081_
*83 _082_
*84 _083_
*85 _084_
*88 _087_
*89 _088_
*90 _089_
*91 _090_
*92 _091_
*95 _094_
*96 _095_
*97 _096_
*98 _097_
*99 _098_
*100 _099_
*101 _100_
*102 _101_
*103 _102_
*104 _103_
*105 _104_
*106 _105_
*107 _106_
*108 _107_
*109 _108_
*110 _109_
*111 _110_
*112 _111_
*113 _112_
*114 _113_
*115 _114_
*116 _115_
*117 _116_
*118 _117_
*119 _118_
*120 _119_
*121 _120_
*122 _121_
*123 _122_
*125 _124_
*127 _126_
*128 _127_
*129 _128_
*132 _131_
*134 _133_
*136 _135_
*137 _136_
*138 _137_
*139 _138_
*140 _139_
*141 _140_
*142 _141_
*143 _142_
*144 _143_
*145 _144_
*146 _145_
*147 _146_
*148 _147_
*149 _148_
*150 _149_
*151 _150_
*152 _151_
*153 _152_
*154 _153_
*158 _157_
*159 _158_
*160 _159_
*161 _160_
*162 _161_
*163 _162_
*164 _163_
*165 _164_
*166 _165_
*167 _166_
*168 _167_
*169 _168_
*170 _169_
*171 _170_
*172 _171_
*173 _172_
*174 _173_
*175 _174_
*176 _175_
*177 _176_
*178 _177_
*179 _178_
*180 _179_
*181 _180_
*182 _181_
*183 _182_
*184 _183_
*185 _184_
*186 _185_
*187 _186_
*188 _187_
*189 _188_
*190 _189_
*191 _190_
*192 _191_
*193 _192_
*194 _193_
*195 _194_
*196 _195_
*199 _198_
*200 _199_
*201 _200_
*202 _201_
*204 _203_
*205 _204_
*206 _205_
*207 _206_
*209 _208_
*210 _209_
*211 _210_
*212 _211_
*213 _212_
*214 _213_
*215 _214_
*216 _215_
*217 _216_
*218 _217_
*219 _218_
*220 _219_
*221 _220_
*222 _221_
*223 _222_
*224 _223_
*225 _224_
*226 _225_
*227 _226_
*228 _227_
*229 _228_
*230 _229_
*231 _230_
*232 _231_
*233 _232_
*234 _233_
*235 _234_
*236 _235_
*237 _236_
*238 _237_
*239 _238_
*240 alu\.a\[0\]
*241 alu\.a\[1\]
*242 alu\.a\[2\]
*243 alu\.a\[3\]
*244 alu\.b\[0\]
*245 alu\.b\[1\]
*246 alu\.b\[2\]
*247 alu\.b\[3\]
*248 clk
*334 clknet_0_clk
*335 clknet_2_0__leaf_clk
*336 clknet_2_1__leaf_clk
*337 clknet_2_2__leaf_clk
*338 clknet_2_3__leaf_clk
*252 data_in[0]
*251 data_in[1]
*250 data_in[2]
*249 data_in[3]
*208 halt_on_nop
*94 halted
*93 instr_addr[0]
*87 instr_addr[1]
*86 instr_addr[2]
*308 instr_addr[3]
*263 instr_in[0]
*203 instr_in[10]
*198 instr_in[11]
*197 instr_in[12]
*157 instr_in[13]
*156 instr_in[14]
*155 instr_in[15]
*270 instr_in[1]
*271 instr_in[2]
*272 instr_in[3]
*273 instr_in[4]
*274 instr_in[5]
*135 instr_in[6]
*133 instr_in[7]
*131 instr_in[8]
*130 instr_in[9]
*253 net1
*268 net10
*269 net11
*275 net12
*276 net13
*277 net14
*278 net15
*304 net16
*305 net17
*258 net18
*259 net19
*254 net2
*260 net20
*261 net21
*262 net22
*279 net23
*280 net24
*281 net25
*282 net26
*283 net27
*284 net28
*285 net29
*255 net3
*286 net30
*287 net31
*288 net32
*289 net33
*290 net34
*291 net35
*292 net36
*293 net37
*294 net38
*295 net39
*256 net4
*296 net40
*297 net41
*298 net42
*299 net43
*300 net44
*301 net45
*302 net46
*303 net47
*257 net5
*264 net6
*265 net7
*266 net8
*267 net9
*309 out_a[0]
*310 out_a[1]
*311 out_a[2]
*312 out_a[3]
*313 out_b[0]
*314 out_b[1]
*315 out_b[2]
*316 out_b[3]
*317 out_valid
*318 reg0[0]
*319 reg0[1]
*320 reg0[2]
*321 reg0[3]
*322 reg1[0]
*323 reg1[1]
*324 reg1[2]
*325 reg1[3]
*326 reg2[0]
*327 reg2[1]
*328 reg2[2]
*329 reg2[3]
*330 reg3[0]
*331 reg3[1]
*332 reg3[2]
*333 reg3[3]
*126 rst
*124 run
*719 FILLER_0_114
*720 FILLER_0_136
*721 FILLER_0_158
*708 FILLER_0_2
*709 FILLER_0_24
*710 FILLER_0_30
*711 FILLER_0_36
*712 FILLER_0_51
*713 FILLER_0_57
*714 FILLER_0_59
*715 FILLER_0_70
*716 FILLER_0_84
*717 FILLER_0_86
*718 FILLER_0_92
*853 FILLER_10_108
*854 FILLER_10_114
*855 FILLER_10_116
*856 FILLER_10_154
*857 FILLER_10_160
*845 FILLER_10_2
*847 FILLER_10_26
*848 FILLER_10_42
*849 FILLER_10_52
*850 FILLER_10_54
*851 FILLER_10_69
*846 FILLER_10_8
*852 FILLER_10_83
*865 FILLER_11_119
*866 FILLER_11_141
*867 FILLER_11_155
*868 FILLER_11_161
*858 FILLER_11_2
*859 FILLER_11_44
*860 FILLER_11_54
*861 FILLER_11_68
*862 FILLER_11_76
*863 FILLER_11_82
*864 FILLER_11_90
*878 FILLER_12_106
*879 FILLER_12_108
*880 FILLER_12_123
*881 FILLER_12_129
*882 FILLER_12_154
*883 FILLER_12_156
*870 FILLER_12_19
*869 FILLER_12_2
*871 FILLER_12_21
*872 FILLER_12_25
*873 FILLER_12_43
*874 FILLER_12_51
*875 FILLER_12_73
*876 FILLER_12_83
*877 FILLER_12_91
*891 FILLER_13_124
*892 FILLER_13_130
*893 FILLER_13_132
*894 FILLER_13_147
*884 FILLER_13_28
*885 FILLER_13_42
*886 FILLER_13_44
*887 FILLER_13_50
*888 FILLER_13_61
*889 FILLER_13_75
*890 FILLER_13_89
*899 FILLER_14_113
*900 FILLER_14_123
*901 FILLER_14_145
*902 FILLER_14_159
*903 FILLER_14_161
*895 FILLER_14_2
*896 FILLER_14_23
*897 FILLER_14_91
*898 FILLER_14_93
*913 FILLER_15_101
*914 FILLER_15_112
*905 FILLER_15_12
*915 FILLER_15_126
*916 FILLER_15_128
*906 FILLER_15_14
*917 FILLER_15_152
*904 FILLER_15_2
*907 FILLER_15_36
*908 FILLER_15_46
*909 FILLER_15_54
*910 FILLER_15_76
*911 FILLER_15_86
*912 FILLER_15_95
*927 FILLER_16_100
*928 FILLER_16_110
*929 FILLER_16_116
*930 FILLER_16_131
*920 FILLER_16_15
*931 FILLER_16_153
*932 FILLER_16_159
*933 FILLER_16_161
*918 FILLER_16_2
*921 FILLER_16_28
*922 FILLER_16_32
*923 FILLER_16_36
*924 FILLER_16_47
*925 FILLER_16_62
*919 FILLER_16_8
*926 FILLER_16_94
*942 FILLER_17_102
*943 FILLER_17_109
*944 FILLER_17_131
*945 FILLER_17_153
*946 FILLER_17_159
*947 FILLER_17_161
*934 FILLER_17_2
*936 FILLER_17_47
*937 FILLER_17_54
*935 FILLER_17_6
*938 FILLER_17_66
*939 FILLER_17_76
*940 FILLER_17_81
*941 FILLER_17_93
*954 FILLER_18_100
*955 FILLER_18_118
*956 FILLER_18_140
*948 FILLER_18_2
*950 FILLER_18_30
*951 FILLER_18_42
*952 FILLER_18_60
*953 FILLER_18_76
*949 FILLER_18_8
*969 FILLER_19_103
*970 FILLER_19_105
*971 FILLER_19_118
*972 FILLER_19_153
*973 FILLER_19_159
*974 FILLER_19_161
*959 FILLER_19_17
*957 FILLER_19_2
*960 FILLER_19_24
*961 FILLER_19_30
*962 FILLER_19_37
*963 FILLER_19_47
*964 FILLER_19_49
*965 FILLER_19_53
*966 FILLER_19_75
*958 FILLER_19_8
*967 FILLER_19_84
*968 FILLER_19_94
*727 FILLER_1_100
*728 FILLER_1_106
*729 FILLER_1_128
*730 FILLER_1_150
*731 FILLER_1_160
*722 FILLER_1_2
*723 FILLER_1_24
*724 FILLER_1_46
*725 FILLER_1_68
*726 FILLER_1_90
*987 FILLER_20_108
*988 FILLER_20_136
*989 FILLER_20_158
*977 FILLER_20_17
*975 FILLER_20_2
*978 FILLER_20_23
*979 FILLER_20_37
*980 FILLER_20_43
*981 FILLER_20_57
*982 FILLER_20_69
*976 FILLER_20_8
*983 FILLER_20_83
*984 FILLER_20_85
*985 FILLER_20_92
*986 FILLER_20_98
*998 FILLER_21_116
*999 FILLER_21_138
*1000 FILLER_21_160
*990 FILLER_21_2
*992 FILLER_21_21
*993 FILLER_21_42
*994 FILLER_21_56
*995 FILLER_21_62
*996 FILLER_21_70
*991 FILLER_21_8
*997 FILLER_21_80
*1010 FILLER_22_102
*1011 FILLER_22_110
*1012 FILLER_22_112
*1013 FILLER_22_147
*1014 FILLER_22_152
*1015 FILLER_22_159
*1016 FILLER_22_161
*1001 FILLER_22_2
*1003 FILLER_22_27
*1004 FILLER_22_37
*1005 FILLER_22_41
*1006 FILLER_22_51
*1002 FILLER_22_6
*1007 FILLER_22_85
*1008 FILLER_22_89
*1009 FILLER_22_93
*1022 FILLER_23_104
*1023 FILLER_23_126
*1024 FILLER_23_148
*1017 FILLER_23_2
*1019 FILLER_23_22
*1020 FILLER_23_60
*1018 FILLER_23_8
*1021 FILLER_23_82
*1027 FILLER_24_10
*1036 FILLER_24_104
*1037 FILLER_24_118
*1038 FILLER_24_128
*1039 FILLER_24_134
*1040 FILLER_24_156
*1028 FILLER_24_16
*1029 FILLER_24_18
*1025 FILLER_24_2
*1030 FILLER_24_25
*1031 FILLER_24_27
*1032 FILLER_24_39
*1026 FILLER_24_4
*1033 FILLER_24_53
*1034 FILLER_24_65
*1035 FILLER_24_95
*1050 FILLER_25_101
*1051 FILLER_25_115
*1052 FILLER_25_119
*1053 FILLER_25_146
*1054 FILLER_25_152
*1055 FILLER_25_156
*1041 FILLER_25_2
*1043 FILLER_25_26
*1044 FILLER_25_28
*1042 FILLER_25_4
*1045 FILLER_25_56
*1046 FILLER_25_58
*1047 FILLER_25_65
*1048 FILLER_25_74
*1049 FILLER_25_93
*1065 FILLER_26_103
*1066 FILLER_26_117
*1067 FILLER_26_129
*1068 FILLER_26_147
*1069 FILLER_26_161
*1056 FILLER_26_2
*1057 FILLER_26_21
*1058 FILLER_26_35
*1059 FILLER_26_48
*1060 FILLER_26_70
*1061 FILLER_26_72
*1062 FILLER_26_80
*1063 FILLER_26_82
*1064 FILLER_26_91
*1080 FILLER_27_100
*1081 FILLER_27_111
*1082 FILLER_27_142
*1083 FILLER_27_152
*1084 FILLER_27_159
*1085 FILLER_27_161
*1070 FILLER_27_2
*1071 FILLER_27_24
*1072 FILLER_27_26
*1073 FILLER_27_41
*1074 FILLER_27_55
*1075 FILLER_27_60
*1076 FILLER_27_70
*1077 FILLER_27_79
*1078 FILLER_27_83
*1079 FILLER_27_90
*1094 FILLER_28_122
*1095 FILLER_28_156
*1087 FILLER_28_16
*1086 FILLER_28_2
*1088 FILLER_28_20
*1089 FILLER_28_41
*1090 FILLER_28_43
*1091 FILLER_28_55
*1092 FILLER_28_77
*1093 FILLER_28_87
*1106 FILLER_29_101
*1107 FILLER_29_115
*1108 FILLER_29_148
*1096 FILLER_29_2
*1097 FILLER_29_24
*1098 FILLER_29_26
*1099 FILLER_29_34
*1100 FILLER_29_44
*1101 FILLER_29_52
*1102 FILLER_29_56
*1103 FILLER_29_65
*1104 FILLER_29_69
*1105 FILLER_29_90
*739 FILLER_2_115
*740 FILLER_2_137
*741 FILLER_2_159
*742 FILLER_2_161
*732 FILLER_2_2
*733 FILLER_2_24
*734 FILLER_2_33
*735 FILLER_2_55
*736 FILLER_2_65
*737 FILLER_2_71
*738 FILLER_2_93
*1117 FILLER_30_102
*1118 FILLER_30_116
*1119 FILLER_30_123
*1120 FILLER_30_129
*1121 FILLER_30_136
*1122 FILLER_30_144
*1123 FILLER_30_158
*1109 FILLER_30_2
*1110 FILLER_30_24
*1111 FILLER_30_38
*1112 FILLER_30_42
*1113 FILLER_30_63
*1114 FILLER_30_83
*1115 FILLER_30_89
*1116 FILLER_30_91
*1135 FILLER_31_106
*1136 FILLER_31_130
*1137 FILLER_31_152
*1124 FILLER_31_2
*1125 FILLER_31_24
*1126 FILLER_31_46
*1127 FILLER_31_56
*1128 FILLER_31_58
*1129 FILLER_31_69
*1130 FILLER_31_78
*1131 FILLER_31_85
*1132 FILLER_31_87
*1133 FILLER_31_93
*1134 FILLER_31_95
*749 FILLER_3_105
*750 FILLER_3_127
*751 FILLER_3_149
*752 FILLER_3_159
*753 FILLER_3_161
*743 FILLER_3_2
*744 FILLER_3_24
*745 FILLER_3_49
*746 FILLER_3_62
*747 FILLER_3_84
*748 FILLER_3_98
*759 FILLER_4_107
*760 FILLER_4_116
*761 FILLER_4_138
*762 FILLER_4_160
*754 FILLER_4_2
*756 FILLER_4_49
*757 FILLER_4_75
*755 FILLER_4_8
*758 FILLER_4_85
*773 FILLER_5_102
*774 FILLER_5_112
*775 FILLER_5_118
*776 FILLER_5_120
*777 FILLER_5_127
*778 FILLER_5_149
*779 FILLER_5_159
*780 FILLER_5_161
*763 FILLER_5_2
*764 FILLER_5_26
*765 FILLER_5_30
*766 FILLER_5_42
*767 FILLER_5_48
*768 FILLER_5_60
*769 FILLER_5_66
*770 FILLER_5_78
*771 FILLER_5_88
*772 FILLER_5_96
*783 FILLER_6_10
*792 FILLER_6_114
*793 FILLER_6_135
*794 FILLER_6_140
*795 FILLER_6_147
*796 FILLER_6_152
*797 FILLER_6_159
*798 FILLER_6_161
*784 FILLER_6_18
*781 FILLER_6_2
*785 FILLER_6_28
*786 FILLER_6_37
*787 FILLER_6_47
*788 FILLER_6_56
*789 FILLER_6_66
*790 FILLER_6_74
*782 FILLER_6_8
*791 FILLER_6_88
*808 FILLER_7_103
*809 FILLER_7_121
*810 FILLER_7_123
*811 FILLER_7_130
*812 FILLER_7_152
*799 FILLER_7_22
*800 FILLER_7_28
*801 FILLER_7_30
*802 FILLER_7_51
*803 FILLER_7_55
*804 FILLER_7_59
*805 FILLER_7_65
*806 FILLER_7_75
*807 FILLER_7_89
*815 FILLER_8_10
*823 FILLER_8_108
*824 FILLER_8_146
*825 FILLER_8_160
*813 FILLER_8_2
*816 FILLER_8_22
*817 FILLER_8_28
*814 FILLER_8_4
*818 FILLER_8_48
*819 FILLER_8_66
*820 FILLER_8_80
*821 FILLER_8_82
*822 FILLER_8_86
*828 FILLER_9_10
*841 FILLER_9_110
*829 FILLER_9_12
*842 FILLER_9_132
*843 FILLER_9_154
*830 FILLER_9_16
*844 FILLER_9_161
*831 FILLER_9_18
*826 FILLER_9_2
*832 FILLER_9_22
*833 FILLER_9_32
*834 FILLER_9_34
*827 FILLER_9_4
*835 FILLER_9_49
*836 FILLER_9_57
*837 FILLER_9_66
*838 FILLER_9_74
*839 FILLER_9_78
*840 FILLER_9_91
*642 PHY_EDGE_ROW_0_Left_32
*610 PHY_EDGE_ROW_0_Right_0
*652 PHY_EDGE_ROW_10_Left_42
*620 PHY_EDGE_ROW_10_Right_10
*653 PHY_EDGE_ROW_11_Left_43
*621 PHY_EDGE_ROW_11_Right_11
*654 PHY_EDGE_ROW_12_Left_44
*622 PHY_EDGE_ROW_12_Right_12
*655 PHY_EDGE_ROW_13_Left_45
*623 PHY_EDGE_ROW_13_Right_13
*656 PHY_EDGE_ROW_14_Left_46
*624 PHY_EDGE_ROW_14_Right_14
*657 PHY_EDGE_ROW_15_Left_47
*625 PHY_EDGE_ROW_15_Right_15
*658 PHY_EDGE_ROW_16_Left_48
*626 PHY_EDGE_ROW_16_Right_16
*659 PHY_EDGE_ROW_17_Left_49
*627 PHY_EDGE_ROW_17_Right_17
*660 PHY_EDGE_ROW_18_Left_50
*628 PHY_EDGE_ROW_18_Right_18
*661 PHY_EDGE_ROW_19_Left_51
*629 PHY_EDGE_ROW_19_Right_19
*643 PHY_EDGE_ROW_1_Left_33
*611 PHY_EDGE_ROW_1_Right_1
*662 PHY_EDGE_ROW_20_Left_52
*630 PHY_EDGE_ROW_20_Right_20
*663 PHY_EDGE_ROW_21_Left_53
*631 PHY_EDGE_ROW_21_Right_21
*664 PHY_EDGE_ROW_22_Left_54
*632 PHY_EDGE_ROW_22_Right_22
*665 PHY_EDGE_ROW_23_Left_55
*633 PHY_EDGE_ROW_23_Right_23
*666 PHY_EDGE_ROW_24_Left_56
*634 PHY_EDGE_ROW_24_Right_24
*667 PHY_EDGE_ROW_25_Left_57
*635 PHY_EDGE_ROW_25_Right_25
*668 PHY_EDGE_ROW_26_Left_58
*636 PHY_EDGE_ROW_26_Right_26
*669 PHY_EDGE_ROW_27_Left_59
*637 PHY_EDGE_ROW_27_Right_27
*670 PHY_EDGE_ROW_28_Left_60
*638 PHY_EDGE_ROW_28_Right_28
*671 PHY_EDGE_ROW_29_Left_61
*639 PHY_EDGE_ROW_29_Right_29
*644 PHY_EDGE_ROW_2_Left_34
*612 PHY_EDGE_ROW_2_Right_2
*672 PHY_EDGE_ROW_30_Left_62
*640 PHY_EDGE_ROW_30_Right_30
*673 PHY_EDGE_ROW_31_Left_63
*641 PHY_EDGE_ROW_31_Right_31
*645 PHY_EDGE_ROW_3_Left_35
*613 PHY_EDGE_ROW_3_Right_3
*646 PHY_EDGE_ROW_4_Left_36
*614 PHY_EDGE_ROW_4_Right_4
*647 PHY_EDGE_ROW_5_Left_37
*615 PHY_EDGE_ROW_5_Right_5
*648 PHY_EDGE_ROW_6_Left_38
*616 PHY_EDGE_ROW_6_Right_6
*649 PHY_EDGE_ROW_7_Left_39
*617 PHY_EDGE_ROW_7_Right_7
*650 PHY_EDGE_ROW_8_Left_40
*618 PHY_EDGE_ROW_8_Right_8
*651 PHY_EDGE_ROW_9_Left_41
*619 PHY_EDGE_ROW_9_Right_9
*339 _239_
*340 _240_
*341 _241_
*342 _242_
*345 _245_
*346 _246_
*347 _247_
*348 _248_
*349 _249_
*350 _250_
*351 _251_
*352 _252_
*353 _253_
*354 _254_
*357 _257_
*358 _258_
*359 _259_
*360 _260_
*361 _261_
*362 _262_
*363 _263_
*364 _264_
*365 _265_
*366 _266_
*367 _267_
*368 _268_
*369 _269_
*370 _270_
*371 _271_
*372 _272_
*373 _273_
*374 _274_
*375 _275_
*376 _276_
*377 _277_
*378 _278_
*379 _279_
*380 _280_
*381 _281_
*382 _282_
*383 _283_
*384 _284_
*385 _285_
*386 _286_
*387 _287_
*388 _288_
*389 _289_
*390 _290_
*391 _291_
*392 _292_
*393 _293_
*394 _294_
*395 _295_
*396 _296_
*397 _297_
*398 _298_
*399 _299_
*400 _300_
*401 _301_
*402 _302_
*403 _303_
*404 _304_
*405 _305_
*406 _306_
*407 _307_
*408 _308_
*409 _309_
*410 _310_
*411 _311_
*412 _312_
*413 _313_
*414 _314_
*415 _315_
*416 _316_
*417 _317_
*418 _318_
*419 _319_
*420 _320_
*421 _321_
*422 _322_
*423 _323_
*425 _325_
*427 _327_
*428 _328_
*429 _329_
*432 _332_
*434 _334_
*436 _336_
*437 _337_
*438 _338_
*439 _339_
*440 _340_
*441 _341_
*442 _342_
*443 _343_
*444 _344_
*445 _345_
*446 _346_
*447 _347_
*448 _348_
*449 _349_
*450 _350_
*451 _351_
*452 _352_
*453 _353_
*454 _354_
*455 _355_
*456 _356_
*457 _357_
*458 _358_
*459 _359_
*460 _360_
*461 _361_
*462 _362_
*463 _363_
*467 _367_
*468 _368_
*469 _369_
*470 _370_
*471 _371_
*472 _372_
*473 _373_
*474 _374_
*475 _375_
*476 _376_
*477 _377_
*478 _378_
*479 _379_
*480 _380_
*481 _381_
*482 _382_
*483 _383_
*484 _384_
*485 _385_
*486 _386_
*487 _387_
*488 _388_
*489 _389_
*490 _390_
*491 _391_
*492 _392_
*493 _393_
*494 _394_
*495 _395_
*496 _396_
*497 _397_
*498 _398_
*499 _399_
*500 _400_
*501 _401_
*502 _402_
*503 _403_
*504 _404_
*505 _405_
*506 _406_
*507 _407_
*508 _408_
*511 _411_
*512 _412_
*513 _413_
*514 _414_
*515 _415_
*516 _416_
*517 _417_
*519 _419_
*520 _420_
*521 _421_
*522 _422_
*523 _423_
*524 _424_
*525 _425_
*527 _427_
*528 _428_
*529 _429_
*530 _430_
*531 _431_
*532 _432_
*533 _433_
*534 _434_
*535 _435_
*536 _436_
*537 _437_
*538 _438_
*539 _439_
*540 _440_
*541 _441_
*542 _442_
*543 _443_
*544 _444_
*545 _445_
*546 _446_
*547 _447_
*548 _448_
*549 _449_
*550 _450_
*551 _451_
*552 _452_
*553 _453_
*554 _454_
*555 _455_
*556 _456_
*557 _457_
*558 _458_
*559 _459_
*560 _460_
*561 _461_
*562 _462_
*563 _463_
*564 _464_
*565 _465_
*566 _466_
*567 _467_
*568 _468_
*569 _469_
*570 _470_
*571 _471_
*572 _472_
*573 _473_
*574 _474_
*575 _475_
*700 clkbuf_0_clk
*701 clkbuf_2_0__f_clk
*702 clkbuf_2_1__f_clk
*703 clkbuf_2_2__f_clk
*704 clkbuf_2_3__f_clk
*705 clkload0
*706 clkload1
*707 clkload2
*580 halted_reg\$_SDFFE_PP0P_
*579 input1
*465 input10
*464 input11
*435 input12
*433 input13
*431 input14
*430 input15
*426 input16
*424 input17
*578 input2
*577 input3
*576 input4
*526 input5
*518 input6
*510 input7
*509 input8
*466 input9
*581 out_a\[0\]\$_SDFFE_PP0P_
*582 out_a\[1\]\$_SDFFE_PP0P_
*583 out_a\[2\]\$_SDFFE_PP0P_
*584 out_a\[3\]\$_SDFFE_PP0P_
*585 out_b\[0\]\$_SDFFE_PP0P_
*586 out_b\[1\]\$_SDFFE_PP0P_
*587 out_b\[2\]\$_SDFFE_PP0P_
*588 out_b\[3\]\$_SDFFE_PP0P_
*589 out_valid\$_SDFF_PP0_
*356 output18
*355 output19
*344 output20
*343 output21
*674 output22
*675 output23
*676 output24
*677 output25
*678 output26
*679 output27
*680 output28
*681 output29
*682 output30
*683 output31
*684 output32
*685 output33
*686 output34
*687 output35
*688 output36
*689 output37
*690 output38
*691 output39
*692 output40
*693 output41
*694 output42
*695 output43
*696 output44
*697 output45
*698 output46
*699 output47
*590 pc_reg\[0\]\$_SDFFE_PP0P_
*591 pc_reg\[1\]\$_SDFFE_PP0P_
*592 pc_reg\[2\]\$_SDFFE_PP0P_
*593 pc_reg\[3\]\$_SDFFE_PP0P_
*594 register_file\.regs\[0\]\[0\]\$_SDFFCE_PN0P_
*595 register_file\.regs\[0\]\[1\]\$_SDFFCE_PN0P_
*596 register_file\.regs\[0\]\[2\]\$_SDFFCE_PN0P_
*597 register_file\.regs\[0\]\[3\]\$_SDFFCE_PN0P_
*598 register_file\.regs\[1\]\[0\]\$_SDFFCE_PN0P_
*599 register_file\.regs\[1\]\[1\]\$_SDFFCE_PN0P_
*600 register_file\.regs\[1\]\[2\]\$_SDFFCE_PN0P_
*601 register_file\.regs\[1\]\[3\]\$_SDFFCE_PN0P_
*602 register_file\.regs\[2\]\[0\]\$_SDFFCE_PN0P_
*603 register_file\.regs\[2\]\[1\]\$_SDFFCE_PN0P_
*604 register_file\.regs\[2\]\[2\]\$_SDFFCE_PN0P_
*605 register_file\.regs\[2\]\[3\]\$_SDFFCE_PN0P_
*606 register_file\.regs\[3\]\[0\]\$_DFFE_PP_
*607 register_file\.regs\[3\]\[1\]\$_DFFE_PP_
*608 register_file\.regs\[3\]\[2\]\$_DFFE_PP_
*609 register_file\.regs\[3\]\[3\]\$_DFFE_PP_

*PORTS
clk I
data_addr[0] O
data_addr[1] O
data_addr[2] O
data_addr[3] O
data_in[0] I
data_in[1] I
data_in[2] I
data_in[3] I
halt_on_nop I
halted O
instr_addr[0] O
instr_addr[1] O
instr_addr[2] O
instr_addr[3] O
instr_in[0] I
instr_in[10] I
instr_in[11] I
instr_in[12] I
instr_in[13] I
instr_in[14] I
instr_in[15] I
instr_in[1] I
instr_in[2] I
instr_in[3] I
instr_in[4] I
instr_in[5] I
instr_in[6] I
instr_in[7] I
instr_in[8] I
instr_in[9] I
out_a[0] O
out_a[1] O
out_a[2] O
out_a[3] O
out_b[0] O
out_b[1] O
out_b[2] O
out_b[3] O
out_valid O
reg0[0] O
reg0[1] O
reg0[2] O
reg0[3] O
reg1[0] O
reg1[1] O
reg1[2] O
reg1[3] O
reg2[0] O
reg2[1] O
reg2[2] O
reg2[3] O
reg3[0] O
reg3[1] O
reg3[2] O
reg3[3] O
rst I
run I

*D_NET *1 0.00014543
*CONN
*I *558:A I *D OR4x1_ASAP7_75t_R
*I *376:A I *D INVx1_ASAP7_75t_R
*I *590:QN O *D DFFHQNx1_ASAP7_75t_R
*CAP
1 *558:A 9.38194e-06
2 *376:A 1.77345e-05
3 *590:QN 1.31556e-05
4 *1:10 4.0272e-05
5 *376:A *559:B 6.44983e-06
6 *376:A *259:10 0
7 *376:A *259:14 2.20493e-06
8 *558:A *558:C 1.95129e-06
9 *558:A *558:D 7.04255e-06
10 *558:A *23:14 2.12481e-06
11 *558:A *23:20 2.20964e-06
12 *558:A *338:81 1.49151e-05
13 *1:10 *134:176 0
14 *1:10 *233:10 1.12894e-06
15 *1:10 *338:81 2.68586e-05
*RES
1 *590:QN *1:10 45.0151 
2 *1:10 *376:A 42.4224 
3 *1:10 *558:A 43.7754 
*END

*D_NET *2 0.000132522
*CONN
*I *339:A I *D INVx1_ASAP7_75t_R
*I *428:A I *D NAND2x1_ASAP7_75t_R
*I *460:A I *D AND2x2_ASAP7_75t_R
*I *580:QN O *D DFFHQNx1_ASAP7_75t_R
*CAP
1 *339:A 3.60177e-06
2 *428:A 5.05518e-06
3 *460:A 4.00143e-06
4 *580:QN 1.29181e-05
5 *2:12 1.81266e-05
6 *2:8 2.55898e-05
7 *339:A *266:10 9.94583e-06
8 *428:A *460:B 1.08167e-05
9 *460:A *460:B 1.21211e-05
10 *2:8 *434:A 0
11 *2:12 *266:10 3.03456e-05
12 *2:12 *304:22 0
*RES
1 *580:QN *2:8 40.2831 
2 *2:8 *2:12 27.337 
3 *2:12 *460:A 20.9438 
4 *2:12 *428:A 20.9438 
5 *2:8 *339:A 37.779 
*END

*D_NET *3 4.44618e-05
*CONN
*I *340:A I *D INVx1_ASAP7_75t_R
*I *589:QN O *D DFFHQNx1_ASAP7_75t_R
*CAP
1 *340:A 0
2 *589:QN 2.22309e-05
3 *3:10 2.22309e-05
*RES
1 *589:QN *3:10 44.7317 
2 *3:10 *340:A 34.4 
*END

*D_NET *4 0.000265787
*CONN
*I *341:A I *D INVx1_ASAP7_75t_R
*I *561:A I *D NAND2x1_ASAP7_75t_R
*I *584:QN O *D DFFHQNx1_ASAP7_75t_R
*CAP
1 *341:A 1.61302e-05
2 *561:A 0
3 *584:QN 0
4 *4:6 0.000110401
5 *4:4 0.000126531
6 *4:6 *129:33 9.75735e-06
7 *4:6 *129:44 2.96818e-06
*RES
1 *584:QN *4:4 17.2 
2 *4:4 *4:6 40.6467 
3 *4:6 *561:A 17.2 
4 *4:4 *341:A 23.0831 
*END

*D_NET *5 2.52819e-05
*CONN
*I *352:A I *D INVx1_ASAP7_75t_R
*I *593:QN O *D DFFHQNx1_ASAP7_75t_R
*CAP
1 *352:A 0
2 *593:QN 1.26409e-05
3 *5:10 1.26409e-05
*RES
1 *593:QN *5:10 40.4531 
2 *5:10 *352:A 34.4 
*END

*D_NET *6 0.000156072
*CONN
*I *353:A I *D INVx1_ASAP7_75t_R
*I *556:A I *D NAND2x1_ASAP7_75t_R
*I *588:QN O *D DFFHQNx1_ASAP7_75t_R
*CAP
1 *353:A 3.16528e-06
2 *556:A 0
3 *588:QN 0
4 *6:6 6.62126e-05
5 *6:4 6.93779e-05
6 *6:6 *588:CLK 1.73158e-05
*RES
1 *588:QN *6:4 17.2 
2 *6:4 *6:6 40.6467 
3 *6:6 *556:A 17.2 
4 *6:4 *353:A 19.3393 
*END

*D_NET *7 5.84508e-05
*CONN
*I *342:A I *D INVx1_ASAP7_75t_R
*I *554:A I *D NOR3x1_ASAP7_75t_R
*I *597:QN O *D DFFHQNx1_ASAP7_75t_R
*CAP
1 *342:A 6.77945e-06
2 *554:A 1.45045e-05
3 *597:QN 4.53326e-06
4 *7:8 2.58172e-05
5 *554:A *171:35 3.65131e-06
6 *554:A *171:43 2.03608e-06
7 *7:8 *226:48 1.12894e-06
*RES
1 *597:QN *7:8 37.779 
2 *7:8 *554:A 45.1815 
3 *7:8 *342:A 38.1438 
*END

*D_NET *8 0.000178197
*CONN
*I *359:A I *D NAND2x1_ASAP7_75t_R
*I *348:A I *D INVx1_ASAP7_75t_R
*I *552:A I *D NOR3x1_ASAP7_75t_R
*I *601:QN O *D DFFHQNx1_ASAP7_75t_R
*CAP
1 *359:A 9.06267e-06
2 *348:A 0
3 *552:A 0
4 *601:QN 2.00495e-05
5 *8:20 2.27308e-05
6 *8:14 4.92058e-05
7 *8:12 3.55377e-05
8 *8:10 2.00495e-05
9 *8:14 *295:43 0
10 *8:20 *79:12 1.31574e-05
11 *8:20 *226:18 8.40387e-06
*RES
1 *601:QN *8:10 43.6621 
2 *8:10 *8:12 17.2 
3 *8:12 *8:14 9.09202 
4 *8:14 *8:20 33.8966 
5 *8:20 *552:A 34.4 
6 *8:14 *348:A 17.2 
7 *8:12 *359:A 20.409 
*END

*D_NET *9 0.000310434
*CONN
*I *363:A I *D INVx1_ASAP7_75t_R
*I *550:A I *D NOR3x1_ASAP7_75t_R
*I *357:A I *D NOR2x1_ASAP7_75t_R
*I *345:A I *D NAND2x1_ASAP7_75t_R
*I *605:QN O *D DFFHQNx1_ASAP7_75t_R
*CAP
1 *363:A 0
2 *550:A 9.48461e-06
3 *357:A 5.99242e-06
4 *345:A 2.2013e-05
5 *605:QN 2.17607e-05
6 *9:14 6.57803e-05
7 *9:12 5.9571e-05
8 *9:10 3.40723e-05
9 *345:A *345:B 7.54e-06
10 *345:A *10:12 8.34054e-06
11 *345:A *96:10 0
12 *345:A *275:188 0
13 *357:A *275:180 2.6409e-06
14 *550:A *304:38 1.28905e-05
15 *9:10 *303:19 4.1009e-06
16 *9:10 *336:155 0
17 *9:12 *228:8 0
18 *9:12 *303:19 1.43509e-05
19 *9:12 *336:155 0
20 *9:14 *10:12 3.51107e-06
21 *9:14 *10:19 2.1664e-06
22 *9:14 *275:188 0
23 *9:14 *303:12 2.1388e-05
24 *9:14 *303:19 1.48308e-05
*RES
1 *605:QN *9:10 45.8014 
2 *9:10 *9:12 11.2633 
3 *9:12 *9:14 33.2268 
4 *9:14 *345:A 49.2937 
5 *9:14 *357:A 38.1438 
6 *9:12 *550:A 43.492 
7 *9:10 *363:A 34.4 
*END

*D_NET *10 0.000288802
*CONN
*I *354:A I *D INVx1_ASAP7_75t_R
*I *548:A I *D NOR2x1_ASAP7_75t_R
*I *349:A I *D NAND2x1_ASAP7_75t_R
*I *609:QN O *D DFFHQNx1_ASAP7_75t_R
*CAP
1 *354:A 2.01519e-05
2 *548:A 0
3 *349:A 0
4 *609:QN 0
5 *10:23 2.12752e-05
6 *10:19 4.99435e-05
7 *10:12 4.02123e-05
8 *10:6 4.87288e-05
9 *354:A *171:35 6.6195e-06
10 *10:12 *345:B 6.02341e-06
11 *10:12 *275:178 0
12 *10:12 *278:157 2.69558e-05
13 *10:12 *278:164 1.47272e-05
14 *10:23 *548:B 1.21211e-05
15 *10:23 *153:12 2.43393e-05
16 *10:23 *227:10 3.68565e-06
17 *345:A *10:12 8.34054e-06
18 *9:14 *10:12 3.51107e-06
19 *9:14 *10:19 2.1664e-06
*RES
1 *609:QN *10:6 34.4 
2 *10:6 *10:12 48.1421 
3 *10:12 *349:A 17.2 
4 *10:6 *10:19 6.75799 
5 *10:19 *10:23 38.0582 
6 *10:23 *548:A 17.2 
7 *10:19 *354:A 44.8451 
*END

*D_NET *11 0.000437334
*CONN
*I *380:A I *D NOR2x1_ASAP7_75t_R
*I *398:A I *D NAND2x1_ASAP7_75t_R
*I *531:A I *D NOR3x1_ASAP7_75t_R
*I *364:A I *D INVx1_ASAP7_75t_R
*I *602:QN O *D DFFHQNx1_ASAP7_75t_R
*CAP
1 *380:A 1.40788e-06
2 *398:A 0
3 *531:A 0
4 *364:A 3.71252e-05
5 *602:QN 7.00115e-06
6 *11:32 8.38651e-06
7 *11:26 3.41794e-05
8 *11:12 6.99449e-05
9 *11:10 5.72047e-05
10 *11:8 7.00115e-06
11 *364:A *531:B 8.31096e-06
12 *364:A *531:C 3.51548e-06
13 *380:A *115:6 1.03895e-05
14 *380:A *192:12 1.25483e-05
15 *11:8 *288:10 1.12894e-06
16 *11:8 *288:27 7.84037e-07
17 *11:12 *598:CLK 5.41446e-06
18 *11:12 *192:12 4.21944e-05
19 *11:26 *401:A1 2.90209e-08
20 *11:26 *14:10 9.75645e-06
21 *11:26 *114:14 1.62434e-05
22 *11:26 *115:6 1.73158e-06
23 *11:26 *192:12 9.41541e-05
24 *11:26 *278:110 2.54159e-06
25 *11:32 *114:14 6.34044e-06
26 *11:32 *275:154 0
*RES
1 *602:QN *11:8 38.9053 
2 *11:8 *11:10 17.2 
3 *11:10 *11:12 21.9278 
4 *11:12 *364:A 37.5233 
5 *11:12 *531:A 17.2 
6 *11:10 *11:26 28.3457 
7 *11:26 *11:32 40.0317 
8 *11:32 *398:A 17.2 
9 *11:26 *380:A 20.9438 
*END

*D_NET *12 0.000380351
*CONN
*I *529:A I *D NOR3x1_ASAP7_75t_R
*I *386:A I *D NOR2x1_ASAP7_75t_R
*I *406:A I *D NAND2x1_ASAP7_75t_R
*I *365:A I *D INVx1_ASAP7_75t_R
*I *603:QN O *D DFFHQNx1_ASAP7_75t_R
*CAP
1 *529:A 1.40865e-05
2 *386:A 0
3 *406:A 0
4 *365:A 0
5 *603:QN 0
6 *12:42 2.53248e-05
7 *12:31 3.08935e-05
8 *12:27 5.11568e-05
9 *12:25 5.45529e-05
10 *12:19 3.3888e-05
11 *12:12 3.18501e-05
12 *12:6 4.26868e-05
13 *529:A *529:B 2.20493e-06
14 *529:A *304:148 0
15 *529:A *304:159 1.20471e-05
16 *12:12 *68:8 0
17 *12:12 *335:95 3.13755e-07
18 *12:12 *335:106 5.37866e-07
19 *12:19 *68:8 0
20 *12:19 *304:148 0
21 *12:25 *199:10 2.20493e-06
22 *12:25 *304:159 3.08855e-05
23 *12:27 *68:8 6.95214e-06
24 *12:27 *71:10 2.22736e-06
25 *12:27 *173:30 0
26 *12:27 *196:59 1.09842e-06
27 *12:27 *199:10 1.31716e-05
28 *12:27 *204:10 0
29 *12:27 *278:14 1.182e-05
30 *12:27 *335:121 7.84772e-07
31 *12:31 *289:13 4.2449e-06
32 *12:42 *275:69 0
33 *12:42 *275:87 0
34 *12:42 *275:97 5.49212e-07
35 *12:42 *278:14 0
36 *12:42 *278:82 0
37 *12:42 *289:13 6.86929e-06
*RES
1 *603:QN *12:6 34.4 
2 *12:6 *12:12 38.4019 
3 *12:12 *365:A 17.2 
4 *12:6 *12:19 6.75799 
5 *12:19 *12:25 43.492 
6 *12:25 *12:27 35.4795 
7 *12:27 *12:31 20.409 
8 *12:31 *406:A 17.2 
9 *12:31 *12:42 36.6274 
10 *12:42 *386:A 34.4 
11 *12:19 *529:A 46.2512 
*END

*D_NET *13 0.00026058
*CONN
*I *392:A I *D NOR2x1_ASAP7_75t_R
*I *410:A I *D NAND2x1_ASAP7_75t_R
*I *527:A I *D NOR3x1_ASAP7_75t_R
*I *366:A I *D INVx1_ASAP7_75t_R
*I *604:QN O *D DFFHQNx1_ASAP7_75t_R
*CAP
1 *392:A 9.94388e-06
2 *410:A 0
3 *527:A 8.75762e-06
4 *366:A 0
5 *604:QN 1.7802e-05
6 *13:42 2.62052e-05
7 *13:24 2.12838e-05
8 *13:18 3.14876e-05
9 *13:16 4.45884e-05
10 *13:12 3.65848e-05
11 *13:8 2.7506e-05
12 *392:A *304:187 1.78333e-06
13 *527:A *304:187 4.20803e-06
14 *13:8 *302:14 2.66797e-07
15 *13:12 *302:14 0
16 *13:16 *304:187 3.0471e-06
17 *13:18 *294:8 5.79724e-07
18 *13:24 *294:8 1.10058e-05
19 *13:42 *111:8 7.2538e-06
20 *13:42 *290:27 0
21 *13:42 *294:8 5.00394e-06
22 *13:42 *294:27 3.27202e-06
*RES
1 *604:QN *13:8 41.3527 
2 *13:8 *13:12 26.2107 
3 *13:12 *13:16 25.2224 
4 *13:16 *13:18 1.6895 
5 *13:18 *13:24 35.1363 
6 *13:24 *366:A 17.2 
7 *13:18 *527:A 40.2831 
8 *13:16 *13:42 38.6003 
9 *13:42 *410:A 17.2 
10 *13:12 *392:A 22.0134 
*END

*D_NET *14 0.00021119
*CONN
*I *382:A I *D NAND2x1_ASAP7_75t_R
*I *367:A I *D INVx1_ASAP7_75t_R
*I *523:A I *D NOR3x1_ASAP7_75t_R
*I *598:QN O *D DFFHQNx1_ASAP7_75t_R
*CAP
1 *382:A 7.55363e-06
2 *367:A 0
3 *523:A 1.19804e-05
4 *598:QN 1.05676e-05
5 *14:20 2.14248e-05
6 *14:14 3.35591e-05
7 *14:12 3.16683e-05
8 *14:10 1.05676e-05
9 *382:A *292:25 1.56713e-06
10 *523:A *688:A 6.10603e-06
11 *523:A *300:14 3.73144e-06
12 *14:10 *373:A 3.16603e-06
13 *14:10 *401:A2 3.90258e-06
14 *14:10 *277:12 0
15 *14:10 *278:110 8.33296e-06
16 *14:10 *278:125 4.83862e-06
17 *14:10 *292:25 5.52652e-06
18 *14:14 *292:12 2.90209e-08
19 *14:14 *292:25 6.81991e-06
20 *14:20 *278:102 3.00916e-05
21 *14:20 *288:10 0
22 *14:20 *300:10 0
23 *11:26 *14:10 9.75645e-06
*RES
1 *598:QN *14:10 43.8321 
2 *14:10 *14:12 17.2 
3 *14:12 *14:14 10.1617 
4 *14:14 *14:20 44.537 
5 *14:20 *523:A 26.292 
6 *14:14 *367:A 17.2 
7 *14:12 *382:A 20.409 
*END

*D_NET *15 0.000253868
*CONN
*I *404:A I *D NOR2x1_ASAP7_75t_R
*I *388:A I *D NAND2x1_ASAP7_75t_R
*I *521:A I *D NOR3x1_ASAP7_75t_R
*I *368:A I *D INVx1_ASAP7_75t_R
*I *599:QN O *D DFFHQNx1_ASAP7_75t_R
*CAP
1 *404:A 1.13402e-05
2 *388:A 1.47678e-05
3 *521:A 0
4 *368:A 1.31189e-05
5 *599:QN 0
6 *15:27 6.21811e-06
7 *15:14 7.06389e-05
8 *15:8 7.7386e-05
9 *15:6 2.26566e-05
10 *368:A *130:23 9.75735e-06
11 *388:A *278:8 4.20803e-06
12 *404:A *278:82 0
13 *404:A *278:91 0
14 *15:8 *278:14 0
15 *15:8 *278:82 0
16 *15:14 *130:23 9.07421e-06
17 *15:14 *278:14 0
18 *15:14 *289:13 1.36108e-05
19 *15:27 *430:A 0
20 *15:27 *304:132 1.09067e-06
*RES
1 *599:QN *15:6 34.4 
2 *15:6 *15:8 6.75799 
3 *15:8 *15:14 44.7595 
4 *15:14 *368:A 24.1527 
5 *15:14 *15:27 38.9053 
6 *15:27 *521:A 17.2 
7 *15:8 *388:A 43.492 
8 *15:6 *404:A 42.1426 
*END

*D_NET *16 0.000202056
*CONN
*I *369:A I *D INVx1_ASAP7_75t_R
*I *394:A I *D NAND2x1_ASAP7_75t_R
*I *519:A I *D NOR3x1_ASAP7_75t_R
*I *600:QN O *D DFFHQNx1_ASAP7_75t_R
*CAP
1 *369:A 1.85345e-05
2 *394:A 5.82699e-06
3 *519:A 1.28439e-05
4 *600:QN 6.05203e-06
5 *16:10 2.27086e-05
6 *16:6 2.86241e-05
7 *369:A *275:37 1.10364e-05
8 *394:A *394:B 1.35684e-06
9 *394:A *173:18 1.61287e-05
10 *394:A *275:50 1.46538e-05
11 *519:A *395:A2 2.03526e-06
12 *519:A *278:40 1.57738e-05
13 *16:6 *275:37 5.62196e-06
14 *16:6 *290:25 0
15 *16:10 *173:18 1.96231e-05
16 *16:10 *275:39 1.31716e-05
17 *16:10 *275:50 8.06436e-06
*RES
1 *600:QN *16:6 19.8741 
2 *16:6 *16:10 23.958 
3 *16:10 *519:A 45.6313 
4 *16:10 *394:A 41.1013 
5 *16:6 *369:A 25.2224 
*END
